Plan Title=Simple trapezoidal channel unsteady (rating DS)
Program Version=7.01
Short Identifier=SimpleCh03
Simulation Date=01JAN2000,0000,03JAN2000,0000
Geom File=g01
Flow File=u03
Subcritical Flow
Friction Slope Method= 1 
Unsteady Friction Slope Method= 2 
Computation Interval=1HOUR
Output Interval=1HOUR
Write Detailed= 1
Run HTab= 1 
Run UNet= 1 
Run PostProcess= 1 
UNET Theta= 1 
UNET ZTol= 0.01 
UNET MxIter= 20 
