Proj Title=Reach mild open channel
Program Version=5.00
Current Plan=p02
Default Exp/Contr=0.3,0.1
SI Units=0
English Units=1
Geom File=g01
Geom Title=Reach mild open channel (ConSpan upstream, no culvert)
Unsteady File=u02
Unsteady Title=Reach mild constant Q unsteady
Plan File=p02
Plan Title=Reach mild open channel unsteady
