Proj Title=Beaver Creek bridge
Program Version=5.00
Current Plan=p03
Default Exp/Contr=0.1,0.3
SI Units=0
English Units=1
Geom File=g01
Geom Title=Beaver Creek
Flow File=f01
Flow Title=Beaver Creek steady bridge profiles
Unsteady File=u02
Unsteady Title=Unsteady 100 yr event
Plan File=p01
Plan Title=Beaver Creek steady bridge profiles
Plan File=p03
Plan Title=Unsteady with 100 yr event
